Circuit: Cerinta 4b - simularea circuitului cu SICI in loc de SRC

Direct Newton iteration for .op point succeeded.

Date: Tue Apr 16 19:43:49 2019
Total elapsed time: 0.023 seconds.

tnom = 27
temp = 27
method = trap
totiter = 3
traniter = 0
tranpoints = 0
accept = 0
rejected = 0
matrix size = 11
fillins = 3
solver = Normal
Matrix Compiler1: 472 bytes object code size
Matrix Compiler2: 779 bytes object code size
