Circuit: * C:\Users\LuciGrigore\Downloads\ed1.asc

Direct Newton iteration for .op point succeeded.

Date: Fri May 22 16:34:36 2020
Total elapsed time: 0.060 seconds.

tnom = 27
temp = 27
method = modified trap
totiter = 2261
traniter = 2258
tranpoints = 1130
accept = 1123
rejected = 7
matrix size = 4
fillins = 0
solver = Normal
Matrix Compiler1: 100 bytes object code size  0.1/0.0/[0.0]
Matrix Compiler2: 248 bytes object code size  0.1/0.1/[0.0]

